version 2
run General-0-20220216-12:02:33-900
attr configname General
attr datetime 20220216-12:02:33
attr experiment General
attr inifile omnetpp.ini
attr iterationvars ""
attr iterationvarsf ""
attr measurement ""
attr network scenario
attr processid 900
attr repetition 0
attr replication #0
attr resultdir results
attr runnumber 0
attr seedset 0
param *.world.playgroundSizeX 2500m
param *.world.playgroundSizeY 2500m
param *.world.playgroundSizeZ 100m
param *.annotations.draw true
param *.connectionManager.sendDirect true
param *.connectionManager.maxInterfDist 200m
param *.connectionManager.drawMaxIntfDist true
param *.manager.commandLine "\"sumo --no-step-log --remote-port $port --seed $seed --configuration-file $configFile\""
param *.manager.configFile "\"sumo-scenario/manhattan.sumocfg\""
param *.manager.autoShutdown true
param *.**.nic.phy80211p.usePropagationDelay true
param *.**.nic.phy80211p.useNoiseFloor true
param *.**.nic.phy80211p.noiseFloor -98dBm
param *.**.nic.phy80211p.analogueModels "xmldoc(\"config.xml\")"
param *.**.nic.phy80211p.decider "xmldoc(\"config.xml\")"
param *.**.nic.phy80211p.minPowerLevel -110dBm
param *.**.nic.mac1609_4.useServiceChannel false
param *.**.nic.mac1609_4.txPower 20mW
param *.**.nic.mac1609_4.bitrate 6Mbps
param **.nic.phy80211p.antenna "xmldoc(\"antenna.xml\", \"/root/Antenna[@id='monopole']\")"
param **.nic.phy80211p.antennaOffsetZ 1.895m
param *.obstacles.debug false
param *.obstacles.obstacles "xmldoc(\"config.xml\", \"//AnalogueModel[@type='SimpleObstacleShadowing']/obstacles\")"
param *.node[*].applType "\"containerVehicles\""
param *.node[*].veinsmobility.x 1000
param *.node[*].veinsmobility.y 0
param *.node[*].veinsmobility.z 0
param *.*.appl.headerLength 10bit
param *.*.appl.beaconPacketLength 10byte
param *.node[0].appl.clusterHead true
param *.*.appl.beaconIntervalDefault 5s
param *.*.appl.debugMode true
param *.*.appl.migrationType 0
param *.*.appl.preMigrationInterval 5s
param *.*.appl.clientsStartUp 5s
param *.*.appl.migrationStart 10s
param *.*.appl.MQTTpublishers 5
param *.*.appl.MQTTsubscribers 5
param *.*.appl.MQTTmsgCount 20
param *.*.appl.MQTTmsgSize 2048
param *.*.appl.MQTTmsgQoS 2
param *.*.appl.MQTTmsgInterval 1000
param *.*.appl.MQTTmsgPretime 2000

vector 0 scenario.node[0].veinsmobility posx ETV
vector 1 scenario.node[0].veinsmobility posy ETV
vector 2 scenario.node[1].veinsmobility posx ETV
vector 3 scenario.node[1].veinsmobility posy ETV
vector 4 scenario.node[0].veinsmobility speed ETV
vector 5 scenario.node[1].veinsmobility speed ETV
vector 6 scenario.node[0].veinsmobility acceleration ETV
vector 7 scenario.node[0].veinsmobility co2emission ETV
vector 8 scenario.node[1].veinsmobility acceleration ETV
vector 9 scenario.node[1].veinsmobility co2emission ETV
0	2	1	446.6
0	3	2	446.6
0	4	3	446.6
0	5	4	446.6
0	7	5	446.6
0	38	6	446.6
0	39	7	446.6
0	40	8	446.6
0	41	9	446.6
0	42	10	446.6
0	73	11	446.6
0	74	12	446.6
0	75	13	446.6
0	76	14	446.6
0	77	15	446.6
0	4296	16	446.6
0	4297	17	446.6
0	4298	18	446.6
0	4299	19	446.6
0	4300	20	446.6
0	4331	21	446.6
0	4332	22	446.6
0	4333	23	446.6
0	4334	24	446.6
0	4335	25	446.6
0	4366	26	446.6
0	4367	27	446.6
0	4368	28	446.6
0	4369	29	446.6
0	4370	30	446.6
0	4401	31	446.6
0	4402	32	446.6
0	4403	33	446.6
0	4404	34	446.6
0	4405	35	446.6
0	4436	36	446.6
0	4437	37	446.6
0	4438	38	446.6
0	4439	39	446.6
0	4440	40	446.6
0	4471	41	446.6
0	4472	42	446.6
0	4473	43	446.6
0	4474	44	446.6
0	4475	45	446.6
0	4506	46	446.6
0	4507	47	446.6
0	4508	48	446.6
0	4509	49	446.6
0	4510	50	446.6
1	2	1	226.3
1	3	2	226.3
1	4	3	226.3
1	5	4	226.3
1	7	5	226.3
1	38	6	226.3
1	39	7	226.3
1	40	8	226.3
1	41	9	226.3
1	42	10	226.3
1	73	11	226.3
1	74	12	226.3
1	75	13	226.3
1	76	14	226.3
1	77	15	226.3
1	4296	16	226.3
1	4297	17	226.3
1	4298	18	226.3
1	4299	19	226.3
1	4300	20	226.3
1	4331	21	226.3
1	4332	22	226.3
1	4333	23	226.3
1	4334	24	226.3
1	4335	25	226.3
1	4366	26	226.3
1	4367	27	226.3
1	4368	28	226.3
1	4369	29	226.3
1	4370	30	226.3
1	4401	31	226.3
1	4402	32	226.3
1	4403	33	226.3
1	4404	34	226.3
1	4405	35	226.3
1	4436	36	226.3
1	4437	37	226.3
1	4438	38	226.3
1	4439	39	226.3
1	4440	40	226.3
1	4471	41	226.3
1	4472	42	226.3
1	4473	43	226.3
1	4474	44	226.3
1	4475	45	226.3
1	4506	46	226.3
1	4507	47	226.3
1	4508	48	226.3
1	4509	49	226.3
1	4510	50	226.3
2	2	1	526.3
2	3	2	526.3
2	4	3	526.3
2	5	4	526.3
2	7	5	526.3
2	38	6	526.3
2	39	7	526.3
2	40	8	526.3
2	41	9	526.3
2	42	10	526.3
2	73	11	526.3
2	74	12	526.3
2	75	13	526.3
2	76	14	526.3
2	77	15	526.3
2	4296	16	526.3
2	4297	17	526.3
2	4298	18	526.3
2	4299	19	526.3
2	4300	20	526.3
2	4331	21	526.3
2	4332	22	526.3
2	4333	23	526.3
2	4334	24	526.3
2	4335	25	526.3
2	4366	26	526.3
2	4367	27	526.3
2	4368	28	526.3
2	4369	29	526.3
2	4370	30	526.3
2	4401	31	526.3
2	4402	32	526.3
2	4403	33	526.3
2	4404	34	526.3
2	4405	35	526.3
2	4436	36	526.3
2	4437	37	526.3
2	4438	38	526.3
2	4439	39	526.3
2	4440	40	526.3
2	4471	41	526.3
2	4472	42	526.3
2	4473	43	526.3
2	4474	44	526.3
2	4475	45	526.3
2	4506	46	526.3
2	4507	47	526.3
2	4508	48	526.3
2	4509	49	526.3
2	4510	50	526.3
3	2	1	143.4
3	3	2	143.4
3	4	3	143.4
3	5	4	143.4
3	7	5	143.4
3	38	6	143.4
3	39	7	143.4
3	40	8	143.4
3	41	9	143.4
3	42	10	143.4
3	73	11	143.4
3	74	12	143.4
3	75	13	143.4
3	76	14	143.4
3	77	15	143.4
3	4296	16	143.4
3	4297	17	143.4
3	4298	18	143.4
3	4299	19	143.4
3	4300	20	143.4
3	4331	21	143.4
3	4332	22	143.4
3	4333	23	143.4
3	4334	24	143.4
3	4335	25	143.4
3	4366	26	143.4
3	4367	27	143.4
3	4368	28	143.4
3	4369	29	143.4
3	4370	30	143.4
3	4401	31	143.4
3	4402	32	143.4
3	4403	33	143.4
3	4404	34	143.4
3	4405	35	143.4
3	4436	36	143.4
3	4437	37	143.4
3	4438	38	143.4
3	4439	39	143.4
3	4440	40	143.4
3	4471	41	143.4
3	4472	42	143.4
3	4473	43	143.4
3	4474	44	143.4
3	4475	45	143.4
3	4506	46	143.4
3	4507	47	143.4
3	4508	48	143.4
3	4509	49	143.4
3	4510	50	143.4
4	3	2	0
4	4	3	0
4	5	4	0
4	7	5	0
4	38	6	0
4	39	7	0
4	40	8	0
4	41	9	0
4	42	10	0
4	73	11	0
4	74	12	0
4	75	13	0
4	76	14	0
4	77	15	0
4	4296	16	0
4	4297	17	0
4	4298	18	0
4	4299	19	0
4	4300	20	0
4	4331	21	0
4	4332	22	0
4	4333	23	0
4	4334	24	0
4	4335	25	0
4	4366	26	0
4	4367	27	0
4	4368	28	0
4	4369	29	0
4	4370	30	0
4	4401	31	0
4	4402	32	0
4	4403	33	0
4	4404	34	0
4	4405	35	0
4	4436	36	0
4	4437	37	0
4	4438	38	0
4	4439	39	0
4	4440	40	0
4	4471	41	0
4	4472	42	0
4	4473	43	0
4	4474	44	0
4	4475	45	0
4	4506	46	0
4	4507	47	0
4	4508	48	0
4	4509	49	0
4	4510	50	0
5	3	2	0
5	4	3	0
5	5	4	0
5	7	5	0
5	38	6	0
5	39	7	0
5	40	8	0
5	41	9	0
5	42	10	0
5	73	11	0
5	74	12	0
5	75	13	0
5	76	14	0
5	77	15	0
5	4296	16	0
5	4297	17	0
5	4298	18	0
5	4299	19	0
5	4300	20	0
5	4331	21	0
5	4332	22	0
5	4333	23	0
5	4334	24	0
5	4335	25	0
5	4366	26	0
5	4367	27	0
5	4368	28	0
5	4369	29	0
5	4370	30	0
5	4401	31	0
5	4402	32	0
5	4403	33	0
5	4404	34	0
5	4405	35	0
5	4436	36	0
5	4437	37	0
5	4438	38	0
5	4439	39	0
5	4440	40	0
5	4471	41	0
5	4472	42	0
5	4473	43	0
5	4474	44	0
5	4475	45	0
5	4506	46	0
5	4507	47	0
5	4508	48	0
5	4509	49	0
5	4510	50	0
6	4	3	0
6	5	4	0
6	7	5	0
6	38	6	0
6	39	7	0
6	40	8	0
6	41	9	0
6	42	10	0
6	73	11	0
6	74	12	0
6	75	13	0
6	76	14	0
6	77	15	0
6	4296	16	0
6	4297	17	0
6	4298	18	0
6	4299	19	0
6	4300	20	0
6	4331	21	0
6	4332	22	0
6	4333	23	0
6	4334	24	0
6	4335	25	0
6	4366	26	0
6	4367	27	0
6	4368	28	0
6	4369	29	0
6	4370	30	0
6	4401	31	0
6	4402	32	0
6	4403	33	0
6	4404	34	0
6	4405	35	0
6	4436	36	0
6	4437	37	0
6	4438	38	0
6	4439	39	0
6	4440	40	0
6	4471	41	0
6	4472	42	0
6	4473	43	0
6	4474	44	0
6	4475	45	0
6	4506	46	0
6	4507	47	0
6	4508	48	0
6	4509	49	0
6	4510	50	0
7	4	3	0.973
7	5	4	0.973
7	7	5	0.973
7	38	6	0.973
7	39	7	0.973
7	40	8	0.973
7	41	9	0.973
7	42	10	0.973
7	73	11	0.973
7	74	12	0.973
7	75	13	0.973
7	76	14	0.973
7	77	15	0.973
7	4296	16	0.973
7	4297	17	0.973
7	4298	18	0.973
7	4299	19	0.973
7	4300	20	0.973
7	4331	21	0.973
7	4332	22	0.973
7	4333	23	0.973
7	4334	24	0.973
7	4335	25	0.973
7	4366	26	0.973
7	4367	27	0.973
7	4368	28	0.973
7	4369	29	0.973
7	4370	30	0.973
7	4401	31	0.973
7	4402	32	0.973
7	4403	33	0.973
7	4404	34	0.973
7	4405	35	0.973
7	4436	36	0.973
7	4437	37	0.973
7	4438	38	0.973
7	4439	39	0.973
7	4440	40	0.973
7	4471	41	0.973
7	4472	42	0.973
7	4473	43	0.973
7	4474	44	0.973
7	4475	45	0.973
7	4506	46	0.973
7	4507	47	0.973
7	4508	48	0.973
7	4509	49	0.973
7	4510	50	0.973
8	4	3	0
8	5	4	0
8	7	5	0
8	38	6	0
8	39	7	0
8	40	8	0
8	41	9	0
8	42	10	0
8	73	11	0
8	74	12	0
8	75	13	0
8	76	14	0
8	77	15	0
8	4296	16	0
8	4297	17	0
8	4298	18	0
8	4299	19	0
8	4300	20	0
8	4331	21	0
8	4332	22	0
8	4333	23	0
8	4334	24	0
8	4335	25	0
8	4366	26	0
8	4367	27	0
8	4368	28	0
8	4369	29	0
8	4370	30	0
8	4401	31	0
8	4402	32	0
8	4403	33	0
8	4404	34	0
8	4405	35	0
8	4436	36	0
8	4437	37	0
8	4438	38	0
8	4439	39	0
8	4440	40	0
8	4471	41	0
8	4472	42	0
8	4473	43	0
8	4474	44	0
8	4475	45	0
8	4506	46	0
8	4507	47	0
8	4508	48	0
8	4509	49	0
8	4510	50	0
9	4	3	0.973
9	5	4	0.973
9	7	5	0.973
9	38	6	0.973
9	39	7	0.973
9	40	8	0.973
9	41	9	0.973
9	42	10	0.973
9	73	11	0.973
9	74	12	0.973
9	75	13	0.973
9	76	14	0.973
9	77	15	0.973
9	4296	16	0.973
9	4297	17	0.973
9	4298	18	0.973
9	4299	19	0.973
9	4300	20	0.973
9	4331	21	0.973
9	4332	22	0.973
9	4333	23	0.973
9	4334	24	0.973
9	4335	25	0.973
9	4366	26	0.973
9	4367	27	0.973
9	4368	28	0.973
9	4369	29	0.973
9	4370	30	0.973
9	4401	31	0.973
9	4402	32	0.973
9	4403	33	0.973
9	4404	34	0.973
9	4405	35	0.973
9	4436	36	0.973
9	4437	37	0.973
9	4438	38	0.973
9	4439	39	0.973
9	4440	40	0.973
9	4471	41	0.973
9	4472	42	0.973
9	4473	43	0.973
9	4474	44	0.973
9	4475	45	0.973
9	4506	46	0.973
9	4507	47	0.973
9	4508	48	0.973
9	4509	49	0.973
9	4510	50	0.973

