version 2
run General-0-20220217-15:35:28-9655
attr configname General
attr datetime 20220217-15:35:28
attr experiment General
attr inifile omnetpp.ini
attr iterationvars ""
attr iterationvarsf ""
attr measurement ""
attr network scenario
attr processid 9655
attr repetition 0
attr replication #0
attr resultdir results
attr runnumber 0
attr seedset 0
param *.world.playgroundSizeX 2500m
param *.world.playgroundSizeY 2500m
param *.world.playgroundSizeZ 100m
param *.annotations.draw true
param *.connectionManager.sendDirect true
param *.connectionManager.maxInterfDist 200m
param *.connectionManager.drawMaxIntfDist true
param *.manager.commandLine "\"sumo --no-step-log --remote-port $port --seed $seed --configuration-file $configFile\""
param *.manager.configFile "\"sumo-scenario/manhattan.sumocfg\""
param *.manager.autoShutdown true
param *.**.nic.phy80211p.usePropagationDelay true
param *.**.nic.phy80211p.useNoiseFloor true
param *.**.nic.phy80211p.noiseFloor -98dBm
param *.**.nic.phy80211p.analogueModels "xmldoc(\"config.xml\")"
param *.**.nic.phy80211p.decider "xmldoc(\"config.xml\")"
param *.**.nic.phy80211p.minPowerLevel -110dBm
param *.**.nic.mac1609_4.useServiceChannel false
param *.**.nic.mac1609_4.txPower 20mW
param *.**.nic.mac1609_4.bitrate 6Mbps
param **.nic.phy80211p.antenna "xmldoc(\"antenna.xml\", \"/root/Antenna[@id='monopole']\")"
param **.nic.phy80211p.antennaOffsetZ 1.895m
param *.obstacles.debug false
param *.obstacles.obstacles "xmldoc(\"config.xml\", \"//AnalogueModel[@type='SimpleObstacleShadowing']/obstacles\")"
param *.node[*].applType "\"containerVehicles\""
param *.node[*].veinsmobility.x 1000
param *.node[*].veinsmobility.y 0
param *.node[*].veinsmobility.z 0
param *.*.appl.headerLength 10bit
param *.*.appl.beaconPacketLength 10byte
param *.node[0].appl.clusterHead true
param *.*.appl.beaconIntervalDefault 5s
param *.*.debugMode false
param *.*.appl.migrationType 1
param *.*.appl.preMigrationInterval 5s
param *.*.appl.migrationStart 50s
param *.*.clientsStartUp 10s
param *.*.MQTTpublishers 5
param *.*.MQTTsubscribers 25
param *.*.MQTTmsgCount 100
param *.*.MQTTmsgSize 20480
param *.*.MQTTmsgQoS 2
param *.*.MQTTmsgInterval 500
param *.*.MQTTmsgPretime 2000

vector 0 scenario.node[0].veinsmobility posx ETV
vector 1 scenario.node[0].veinsmobility posy ETV
vector 2 scenario.node[1].veinsmobility posx ETV
vector 3 scenario.node[1].veinsmobility posy ETV
vector 4 scenario.node[0].veinsmobility speed ETV
vector 5 scenario.node[1].veinsmobility speed ETV
vector 6 scenario.node[0].veinsmobility acceleration ETV
vector 7 scenario.node[0].veinsmobility co2emission ETV
vector 8 scenario.node[1].veinsmobility acceleration ETV
vector 9 scenario.node[1].veinsmobility co2emission ETV
0	2	1	446.6
0	3	2	446.6
0	4	3	446.6
0	5	4	446.6
0	6	5	446.6
0	38	6	446.6
0	39	7	446.6
0	40	8	446.6
0	41	9	446.6
0	43	10	446.6
0	75	11	446.6
0	76	12	446.6
0	77	13	446.6
0	78	14	446.6
0	79	15	446.6
0	111	16	446.6
0	112	17	446.6
0	113	18	446.6
0	114	19	446.6
0	115	20	446.6
0	147	21	446.6
0	148	22	446.6
0	149	23	446.6
0	150	24	446.6
0	151	25	446.6
0	183	26	446.6
0	184	27	446.6
0	185	28	446.6
0	186	29	446.6
0	187	30	446.6
0	219	31	446.6
0	220	32	446.6
0	221	33	446.6
0	222	34	446.6
0	223	35	446.6
0	255	36	446.6
0	256	37	446.6
0	257	38	446.6
0	258	39	446.6
0	259	40	446.6
0	291	41	446.6
0	292	42	446.6
0	293	43	446.6
0	294	44	446.6
0	295	45	446.6
0	327	46	446.6
0	328	47	446.6
0	329	48	446.6
0	330	49	446.6
0	331	50	446.6
0	363	51	446.6
0	364	52	446.6
0	365	53	446.6
0	366	54	446.6
0	367	55	446.6
0	2039	56	446.6
0	2040	57	446.6
0	2041	58	446.6
0	2042	59	446.6
0	2043	60	446.6
0	2074	61	446.6
0	2075	62	446.6
0	2076	63	446.6
0	2077	64	446.6
0	2078	65	446.6
0	2109	66	446.6
0	2110	67	446.6
0	2111	68	446.6
0	2112	69	446.6
0	2113	70	446.6
0	2144	71	446.6
0	2145	72	446.6
0	2146	73	446.6
0	2147	74	446.6
0	2148	75	446.6
0	2179	76	446.6
0	2180	77	446.6
0	2181	78	446.6
0	2182	79	446.6
0	2183	80	446.6
0	2214	81	446.6
0	2215	82	446.6
0	2216	83	446.6
0	2217	84	446.6
0	2218	85	446.6
0	2249	86	446.6
0	2250	87	446.6
0	2251	88	446.6
0	2252	89	446.6
0	2253	90	446.6
0	2284	91	446.6
0	2285	92	446.6
0	2286	93	446.6
0	2287	94	446.6
0	2288	95	446.6
0	2319	96	446.6
0	2320	97	446.6
0	2321	98	446.6
0	2322	99	446.6
0	2323	100	446.6
1	2	1	226.3
1	3	2	226.3
1	4	3	226.3
1	5	4	226.3
1	6	5	226.3
1	38	6	226.3
1	39	7	226.3
1	40	8	226.3
1	41	9	226.3
1	43	10	226.3
1	75	11	226.3
1	76	12	226.3
1	77	13	226.3
1	78	14	226.3
1	79	15	226.3
1	111	16	226.3
1	112	17	226.3
1	113	18	226.3
1	114	19	226.3
1	115	20	226.3
1	147	21	226.3
1	148	22	226.3
1	149	23	226.3
1	150	24	226.3
1	151	25	226.3
1	183	26	226.3
1	184	27	226.3
1	185	28	226.3
1	186	29	226.3
1	187	30	226.3
1	219	31	226.3
1	220	32	226.3
1	221	33	226.3
1	222	34	226.3
1	223	35	226.3
1	255	36	226.3
1	256	37	226.3
1	257	38	226.3
1	258	39	226.3
1	259	40	226.3
1	291	41	226.3
1	292	42	226.3
1	293	43	226.3
1	294	44	226.3
1	295	45	226.3
1	327	46	226.3
1	328	47	226.3
1	329	48	226.3
1	330	49	226.3
1	331	50	226.3
1	363	51	226.3
1	364	52	226.3
1	365	53	226.3
1	366	54	226.3
1	367	55	226.3
1	2039	56	226.3
1	2040	57	226.3
1	2041	58	226.3
1	2042	59	226.3
1	2043	60	226.3
1	2074	61	226.3
1	2075	62	226.3
1	2076	63	226.3
1	2077	64	226.3
1	2078	65	226.3
1	2109	66	226.3
1	2110	67	226.3
1	2111	68	226.3
1	2112	69	226.3
1	2113	70	226.3
1	2144	71	226.3
1	2145	72	226.3
1	2146	73	226.3
1	2147	74	226.3
1	2148	75	226.3
1	2179	76	226.3
1	2180	77	226.3
1	2181	78	226.3
1	2182	79	226.3
1	2183	80	226.3
1	2214	81	226.3
1	2215	82	226.3
1	2216	83	226.3
1	2217	84	226.3
1	2218	85	226.3
1	2249	86	226.3
1	2250	87	226.3
1	2251	88	226.3
1	2252	89	226.3
1	2253	90	226.3
1	2284	91	226.3
1	2285	92	226.3
1	2286	93	226.3
1	2287	94	226.3
1	2288	95	226.3
1	2319	96	226.3
1	2320	97	226.3
1	2321	98	226.3
1	2322	99	226.3
1	2323	100	226.3
2	2	1	526.3
2	3	2	526.3
2	4	3	526.3
2	5	4	526.3
2	6	5	526.3
2	38	6	526.3
2	39	7	526.3
2	40	8	526.3
2	41	9	526.3
2	43	10	526.3
2	75	11	526.3
2	76	12	526.3
2	77	13	526.3
2	78	14	526.3
2	79	15	526.3
2	111	16	526.3
2	112	17	526.3
2	113	18	526.3
2	114	19	526.3
2	115	20	526.3
2	147	21	526.3
2	148	22	526.3
2	149	23	526.3
2	150	24	526.3
2	151	25	526.3
2	183	26	526.3
2	184	27	526.3
2	185	28	526.3
2	186	29	526.3
2	187	30	526.3
2	219	31	526.3
2	220	32	526.3
2	221	33	526.3
2	222	34	526.3
2	223	35	526.3
2	255	36	526.3
2	256	37	526.3
2	257	38	526.3
2	258	39	526.3
2	259	40	526.3
2	291	41	526.3
2	292	42	526.3
2	293	43	526.3
2	294	44	526.3
2	295	45	526.3
2	327	46	526.3
2	328	47	526.3
2	329	48	526.3
2	330	49	526.3
2	331	50	526.3
2	363	51	526.3
2	364	52	526.3
2	365	53	526.3
2	366	54	526.3
2	367	55	526.3
2	2039	56	526.3
2	2040	57	526.3
2	2041	58	526.3
2	2042	59	526.3
2	2043	60	526.3
2	2074	61	526.3
2	2075	62	526.3
2	2076	63	526.3
2	2077	64	526.3
2	2078	65	526.3
2	2109	66	526.3
2	2110	67	526.3
2	2111	68	526.3
2	2112	69	526.3
2	2113	70	526.3
2	2144	71	526.3
2	2145	72	526.3
2	2146	73	526.3
2	2147	74	526.3
2	2148	75	526.3
2	2179	76	526.3
2	2180	77	526.3
2	2181	78	526.3
2	2182	79	526.3
2	2183	80	526.3
2	2214	81	526.3
2	2215	82	526.3
2	2216	83	526.3
2	2217	84	526.3
2	2218	85	526.3
2	2249	86	526.3
2	2250	87	526.3
2	2251	88	526.3
2	2252	89	526.3
2	2253	90	526.3
2	2284	91	526.3
2	2285	92	526.3
2	2286	93	526.3
2	2287	94	526.3
2	2288	95	526.3
2	2319	96	526.3
2	2320	97	526.3
2	2321	98	526.3
2	2322	99	526.3
2	2323	100	526.3
3	2	1	143.4
3	3	2	143.4
3	4	3	143.4
3	5	4	143.4
3	6	5	143.4
3	38	6	143.4
3	39	7	143.4
3	40	8	143.4
3	41	9	143.4
3	43	10	143.4
3	75	11	143.4
3	76	12	143.4
3	77	13	143.4
3	78	14	143.4
3	79	15	143.4
3	111	16	143.4
3	112	17	143.4
3	113	18	143.4
3	114	19	143.4
3	115	20	143.4
3	147	21	143.4
3	148	22	143.4
3	149	23	143.4
3	150	24	143.4
3	151	25	143.4
3	183	26	143.4
3	184	27	143.4
3	185	28	143.4
3	186	29	143.4
3	187	30	143.4
3	219	31	143.4
3	220	32	143.4
3	221	33	143.4
3	222	34	143.4
3	223	35	143.4
3	255	36	143.4
3	256	37	143.4
3	257	38	143.4
3	258	39	143.4
3	259	40	143.4
3	291	41	143.4
3	292	42	143.4
3	293	43	143.4
3	294	44	143.4
3	295	45	143.4
3	327	46	143.4
3	328	47	143.4
3	329	48	143.4
3	330	49	143.4
3	331	50	143.4
3	363	51	143.4
3	364	52	143.4
3	365	53	143.4
3	366	54	143.4
3	367	55	143.4
3	2039	56	143.4
3	2040	57	143.4
3	2041	58	143.4
3	2042	59	143.4
3	2043	60	143.4
3	2074	61	143.4
3	2075	62	143.4
3	2076	63	143.4
3	2077	64	143.4
3	2078	65	143.4
3	2109	66	143.4
3	2110	67	143.4
3	2111	68	143.4
3	2112	69	143.4
3	2113	70	143.4
3	2144	71	143.4
3	2145	72	143.4
3	2146	73	143.4
3	2147	74	143.4
3	2148	75	143.4
3	2179	76	143.4
3	2180	77	143.4
3	2181	78	143.4
3	2182	79	143.4
3	2183	80	143.4
3	2214	81	143.4
3	2215	82	143.4
3	2216	83	143.4
3	2217	84	143.4
3	2218	85	143.4
3	2249	86	143.4
3	2250	87	143.4
3	2251	88	143.4
3	2252	89	143.4
3	2253	90	143.4
3	2284	91	143.4
3	2285	92	143.4
3	2286	93	143.4
3	2287	94	143.4
3	2288	95	143.4
3	2319	96	143.4
3	2320	97	143.4
3	2321	98	143.4
3	2322	99	143.4
3	2323	100	143.4
4	3	2	0
4	4	3	0
4	5	4	0
4	6	5	0
4	38	6	0
4	39	7	0
4	40	8	0
4	41	9	0
4	43	10	0
4	75	11	0
4	76	12	0
4	77	13	0
4	78	14	0
4	79	15	0
4	111	16	0
4	112	17	0
4	113	18	0
4	114	19	0
4	115	20	0
4	147	21	0
4	148	22	0
4	149	23	0
4	150	24	0
4	151	25	0
4	183	26	0
4	184	27	0
4	185	28	0
4	186	29	0
4	187	30	0
4	219	31	0
4	220	32	0
4	221	33	0
4	222	34	0
4	223	35	0
4	255	36	0
4	256	37	0
4	257	38	0
4	258	39	0
4	259	40	0
4	291	41	0
4	292	42	0
4	293	43	0
4	294	44	0
4	295	45	0
4	327	46	0
4	328	47	0
4	329	48	0
4	330	49	0
4	331	50	0
4	363	51	0
4	364	52	0
4	365	53	0
4	366	54	0
4	367	55	0
4	2039	56	0
4	2040	57	0
4	2041	58	0
4	2042	59	0
4	2043	60	0
4	2074	61	0
4	2075	62	0
4	2076	63	0
4	2077	64	0
4	2078	65	0
4	2109	66	0
4	2110	67	0
4	2111	68	0
4	2112	69	0
4	2113	70	0
4	2144	71	0
4	2145	72	0
4	2146	73	0
4	2147	74	0
4	2148	75	0
4	2179	76	0
4	2180	77	0
4	2181	78	0
4	2182	79	0
4	2183	80	0
4	2214	81	0
4	2215	82	0
4	2216	83	0
4	2217	84	0
4	2218	85	0
4	2249	86	0
4	2250	87	0
4	2251	88	0
4	2252	89	0
4	2253	90	0
4	2284	91	0
4	2285	92	0
4	2286	93	0
4	2287	94	0
4	2288	95	0
4	2319	96	0
4	2320	97	0
4	2321	98	0
4	2322	99	0
4	2323	100	0
5	3	2	0
5	4	3	0
5	5	4	0
5	6	5	0
5	38	6	0
5	39	7	0
5	40	8	0
5	41	9	0
5	43	10	0
5	75	11	0
5	76	12	0
5	77	13	0
5	78	14	0
5	79	15	0
5	111	16	0
5	112	17	0
5	113	18	0
5	114	19	0
5	115	20	0
5	147	21	0
5	148	22	0
5	149	23	0
5	150	24	0
5	151	25	0
5	183	26	0
5	184	27	0
5	185	28	0
5	186	29	0
5	187	30	0
5	219	31	0
5	220	32	0
5	221	33	0
5	222	34	0
5	223	35	0
5	255	36	0
5	256	37	0
5	257	38	0
5	258	39	0
5	259	40	0
5	291	41	0
5	292	42	0
5	293	43	0
5	294	44	0
5	295	45	0
5	327	46	0
5	328	47	0
5	329	48	0
5	330	49	0
5	331	50	0
5	363	51	0
5	364	52	0
5	365	53	0
5	366	54	0
5	367	55	0
5	2039	56	0
5	2040	57	0
5	2041	58	0
5	2042	59	0
5	2043	60	0
5	2074	61	0
5	2075	62	0
5	2076	63	0
5	2077	64	0
5	2078	65	0
5	2109	66	0
5	2110	67	0
5	2111	68	0
5	2112	69	0
5	2113	70	0
5	2144	71	0
5	2145	72	0
5	2146	73	0
5	2147	74	0
5	2148	75	0
5	2179	76	0
5	2180	77	0
5	2181	78	0
5	2182	79	0
5	2183	80	0
5	2214	81	0
5	2215	82	0
5	2216	83	0
5	2217	84	0
5	2218	85	0
5	2249	86	0
5	2250	87	0
5	2251	88	0
5	2252	89	0
5	2253	90	0
5	2284	91	0
5	2285	92	0
5	2286	93	0
5	2287	94	0
5	2288	95	0
5	2319	96	0
5	2320	97	0
5	2321	98	0
5	2322	99	0
5	2323	100	0
6	4	3	0
6	5	4	0
6	6	5	0
6	38	6	0
6	39	7	0
6	40	8	0
6	41	9	0
6	43	10	0
6	75	11	0
6	76	12	0
6	77	13	0
6	78	14	0
6	79	15	0
6	111	16	0
6	112	17	0
6	113	18	0
6	114	19	0
6	115	20	0
6	147	21	0
6	148	22	0
6	149	23	0
6	150	24	0
6	151	25	0
6	183	26	0
6	184	27	0
6	185	28	0
6	186	29	0
6	187	30	0
6	219	31	0
6	220	32	0
6	221	33	0
6	222	34	0
6	223	35	0
6	255	36	0
6	256	37	0
6	257	38	0
6	258	39	0
6	259	40	0
6	291	41	0
6	292	42	0
6	293	43	0
6	294	44	0
6	295	45	0
6	327	46	0
6	328	47	0
6	329	48	0
6	330	49	0
6	331	50	0
6	363	51	0
6	364	52	0
6	365	53	0
6	366	54	0
6	367	55	0
6	2039	56	0
6	2040	57	0
6	2041	58	0
6	2042	59	0
6	2043	60	0
6	2074	61	0
6	2075	62	0
6	2076	63	0
6	2077	64	0
6	2078	65	0
6	2109	66	0
6	2110	67	0
6	2111	68	0
6	2112	69	0
6	2113	70	0
6	2144	71	0
6	2145	72	0
6	2146	73	0
6	2147	74	0
6	2148	75	0
6	2179	76	0
6	2180	77	0
6	2181	78	0
6	2182	79	0
6	2183	80	0
6	2214	81	0
6	2215	82	0
6	2216	83	0
6	2217	84	0
6	2218	85	0
6	2249	86	0
6	2250	87	0
6	2251	88	0
6	2252	89	0
6	2253	90	0
6	2284	91	0
6	2285	92	0
6	2286	93	0
6	2287	94	0
6	2288	95	0
6	2319	96	0
6	2320	97	0
6	2321	98	0
6	2322	99	0
6	2323	100	0
7	4	3	0.973
7	5	4	0.973
7	6	5	0.973
7	38	6	0.973
7	39	7	0.973
7	40	8	0.973
7	41	9	0.973
7	43	10	0.973
7	75	11	0.973
7	76	12	0.973
7	77	13	0.973
7	78	14	0.973
7	79	15	0.973
7	111	16	0.973
7	112	17	0.973
7	113	18	0.973
7	114	19	0.973
7	115	20	0.973
7	147	21	0.973
7	148	22	0.973
7	149	23	0.973
7	150	24	0.973
7	151	25	0.973
7	183	26	0.973
7	184	27	0.973
7	185	28	0.973
7	186	29	0.973
7	187	30	0.973
7	219	31	0.973
7	220	32	0.973
7	221	33	0.973
7	222	34	0.973
7	223	35	0.973
7	255	36	0.973
7	256	37	0.973
7	257	38	0.973
7	258	39	0.973
7	259	40	0.973
7	291	41	0.973
7	292	42	0.973
7	293	43	0.973
7	294	44	0.973
7	295	45	0.973
7	327	46	0.973
7	328	47	0.973
7	329	48	0.973
7	330	49	0.973
7	331	50	0.973
7	363	51	0.973
7	364	52	0.973
7	365	53	0.973
7	366	54	0.973
7	367	55	0.973
7	2039	56	0.973
7	2040	57	0.973
7	2041	58	0.973
7	2042	59	0.973
7	2043	60	0.973
7	2074	61	0.973
7	2075	62	0.973
7	2076	63	0.973
7	2077	64	0.973
7	2078	65	0.973
7	2109	66	0.973
7	2110	67	0.973
7	2111	68	0.973
7	2112	69	0.973
7	2113	70	0.973
7	2144	71	0.973
7	2145	72	0.973
7	2146	73	0.973
7	2147	74	0.973
7	2148	75	0.973
7	2179	76	0.973
7	2180	77	0.973
7	2181	78	0.973
7	2182	79	0.973
7	2183	80	0.973
7	2214	81	0.973
7	2215	82	0.973
7	2216	83	0.973
7	2217	84	0.973
7	2218	85	0.973
7	2249	86	0.973
7	2250	87	0.973
7	2251	88	0.973
7	2252	89	0.973
7	2253	90	0.973
7	2284	91	0.973
7	2285	92	0.973
7	2286	93	0.973
7	2287	94	0.973
7	2288	95	0.973
7	2319	96	0.973
7	2320	97	0.973
7	2321	98	0.973
7	2322	99	0.973
7	2323	100	0.973
8	4	3	0
8	5	4	0
8	6	5	0
8	38	6	0
8	39	7	0
8	40	8	0
8	41	9	0
8	43	10	0
8	75	11	0
8	76	12	0
8	77	13	0
8	78	14	0
8	79	15	0
8	111	16	0
8	112	17	0
8	113	18	0
8	114	19	0
8	115	20	0
8	147	21	0
8	148	22	0
8	149	23	0
8	150	24	0
8	151	25	0
8	183	26	0
8	184	27	0
8	185	28	0
8	186	29	0
8	187	30	0
8	219	31	0
8	220	32	0
8	221	33	0
8	222	34	0
8	223	35	0
8	255	36	0
8	256	37	0
8	257	38	0
8	258	39	0
8	259	40	0
8	291	41	0
8	292	42	0
8	293	43	0
8	294	44	0
8	295	45	0
8	327	46	0
8	328	47	0
8	329	48	0
8	330	49	0
8	331	50	0
8	363	51	0
8	364	52	0
8	365	53	0
8	366	54	0
8	367	55	0
8	2039	56	0
8	2040	57	0
8	2041	58	0
8	2042	59	0
8	2043	60	0
8	2074	61	0
8	2075	62	0
8	2076	63	0
8	2077	64	0
8	2078	65	0
8	2109	66	0
8	2110	67	0
8	2111	68	0
8	2112	69	0
8	2113	70	0
8	2144	71	0
8	2145	72	0
8	2146	73	0
8	2147	74	0
8	2148	75	0
8	2179	76	0
8	2180	77	0
8	2181	78	0
8	2182	79	0
8	2183	80	0
8	2214	81	0
8	2215	82	0
8	2216	83	0
8	2217	84	0
8	2218	85	0
8	2249	86	0
8	2250	87	0
8	2251	88	0
8	2252	89	0
8	2253	90	0
8	2284	91	0
8	2285	92	0
8	2286	93	0
8	2287	94	0
8	2288	95	0
8	2319	96	0
8	2320	97	0
8	2321	98	0
8	2322	99	0
8	2323	100	0
9	4	3	0.973
9	5	4	0.973
9	6	5	0.973
9	38	6	0.973
9	39	7	0.973
9	40	8	0.973
9	41	9	0.973
9	43	10	0.973
9	75	11	0.973
9	76	12	0.973
9	77	13	0.973
9	78	14	0.973
9	79	15	0.973
9	111	16	0.973
9	112	17	0.973
9	113	18	0.973
9	114	19	0.973
9	115	20	0.973
9	147	21	0.973
9	148	22	0.973
9	149	23	0.973
9	150	24	0.973
9	151	25	0.973
9	183	26	0.973
9	184	27	0.973
9	185	28	0.973
9	186	29	0.973
9	187	30	0.973
9	219	31	0.973
9	220	32	0.973
9	221	33	0.973
9	222	34	0.973
9	223	35	0.973
9	255	36	0.973
9	256	37	0.973
9	257	38	0.973
9	258	39	0.973
9	259	40	0.973
9	291	41	0.973
9	292	42	0.973
9	293	43	0.973
9	294	44	0.973
9	295	45	0.973
9	327	46	0.973
9	328	47	0.973
9	329	48	0.973
9	330	49	0.973
9	331	50	0.973
9	363	51	0.973
9	364	52	0.973
9	365	53	0.973
9	366	54	0.973
9	367	55	0.973
9	2039	56	0.973
9	2040	57	0.973
9	2041	58	0.973
9	2042	59	0.973
9	2043	60	0.973
9	2074	61	0.973
9	2075	62	0.973
9	2076	63	0.973
9	2077	64	0.973
9	2078	65	0.973
9	2109	66	0.973
9	2110	67	0.973
9	2111	68	0.973
9	2112	69	0.973
9	2113	70	0.973
9	2144	71	0.973
9	2145	72	0.973
9	2146	73	0.973
9	2147	74	0.973
9	2148	75	0.973
9	2179	76	0.973
9	2180	77	0.973
9	2181	78	0.973
9	2182	79	0.973
9	2183	80	0.973
9	2214	81	0.973
9	2215	82	0.973
9	2216	83	0.973
9	2217	84	0.973
9	2218	85	0.973
9	2249	86	0.973
9	2250	87	0.973
9	2251	88	0.973
9	2252	89	0.973
9	2253	90	0.973
9	2284	91	0.973
9	2285	92	0.973
9	2286	93	0.973
9	2287	94	0.973
9	2288	95	0.973
9	2319	96	0.973
9	2320	97	0.973
9	2321	98	0.973
9	2322	99	0.973
9	2323	100	0.973

